Version 4
SHEET 1 1560 680
WIRE -16 -16 -32 -16
WIRE 592 -16 48 -16
WIRE -176 32 -176 0
WIRE -560 64 -576 64
WIRE -288 64 -480 64
WIRE 224 64 224 48
WIRE 320 64 224 64
WIRE 224 80 224 64
WIRE 320 80 320 64
WIRE -288 144 -288 64
WIRE -176 144 -176 112
WIRE -176 144 -288 144
WIRE -32 144 -32 -16
WIRE -32 144 -176 144
WIRE 64 144 -32 144
WIRE 144 144 64 144
WIRE 480 144 400 144
WIRE 720 144 480 144
WIRE 864 160 784 160
WIRE 928 160 864 160
WIRE 1168 160 1088 160
WIRE -576 176 -576 64
WIRE -576 176 -608 176
WIRE -560 176 -576 176
WIRE -448 176 -480 176
WIRE -400 176 -448 176
WIRE 64 176 -400 176
WIRE 144 176 64 176
WIRE 480 176 400 176
WIRE 592 176 592 -16
WIRE 592 176 480 176
WIRE 720 176 592 176
WIRE 1168 176 1168 160
WIRE 1264 176 1168 176
WIRE 1360 192 1328 192
WIRE -400 208 -400 176
WIRE -176 208 -176 144
WIRE 720 208 720 192
WIRE 864 208 768 208
WIRE 928 208 864 208
WIRE 1168 208 1104 208
WIRE 1264 208 1168 208
WIRE 1264 240 1264 224
WIRE -576 272 -576 176
WIRE -560 272 -576 272
WIRE -448 272 -448 176
WIRE -448 272 -496 272
WIRE 928 272 928 256
WIRE -400 304 -400 288
WIRE -176 304 -176 288
WIRE 512 304 512 288
WIRE 656 304 656 288
WIRE 768 304 768 208
WIRE 320 320 320 304
WIRE -160 368 -192 368
WIRE 512 400 512 384
WIRE 656 400 656 384
WIRE 768 400 768 384
WIRE -192 416 -192 368
WIRE -192 528 -192 496
FLAG 320 320 0
FLAG 512 400 0
FLAG 656 400 0
FLAG 512 288 VCC1
FLAG 656 288 VCC2
FLAG 224 48 VCC1
FLAG -176 0 VCC2
FLAG -176 304 0
FLAG -400 304 0
FLAG -608 176 Gate_STR1_i
FLAG 64 176 comp_p_in
FLAG 64 144 comp_n_in
FLAG 480 176 comp_n_out
FLAG 480 144 comp_p_out
FLAG 768 400 0
FLAG 864 208 CFD_OUT
FLAG -160 368 Gate_STR1_i
FLAG 1168 160 Gate_STR1_P
FLAG 1168 208 Gate_STR1_N
FLAG 720 208 0
FLAG 928 272 0
FLAG -192 528 0
FLAG 864 160 comp_out
FLAG 1264 240 0
FLAG 1360 192 GATE_STR1_o
SYMBOL Digital\\dflop 1008 112 R0
SYMATTR InstName A1
SYMBOL cap 48 -32 R90
WINDOW 0 0 32 VBottom 2
WINDOW 3 32 32 VTop 2
SYMATTR InstName C1
SYMATTR Value 18p
SYMBOL res -192 16 R0
SYMATTR InstName R1
SYMATTR Value 510
SYMBOL res -192 192 R0
SYMATTR InstName R2
SYMATTR Value 510
SYMBOL voltage 512 288 R0
WINDOW 123 0 0 Left 0
WINDOW 39 0 0 Left 0
SYMATTR InstName V1
SYMATTR Value 3.3
SYMBOL voltage 656 288 R0
WINDOW 123 0 0 Left 0
WINDOW 39 0 0 Left 0
SYMATTR InstName V2
SYMATTR Value 1.8
SYMBOL res -416 192 R0
SYMATTR InstName R3
SYMATTR Value 510
SYMBOL res -464 48 R90
WINDOW 0 0 56 VBottom 2
WINDOW 3 32 56 VTop 2
SYMATTR InstName R4
SYMATTR Value 510
SYMBOL res -464 160 R90
WINDOW 0 0 56 VBottom 2
WINDOW 3 32 56 VTop 2
SYMATTR InstName R5
SYMATTR Value 510
SYMBOL cap -496 256 R90
WINDOW 0 0 32 VBottom 2
WINDOW 3 32 32 VTop 2
SYMATTR InstName C2
SYMATTR Value 2.7p
SYMBOL voltage -192 400 R0
WINDOW 3 38 58 Left 2
WINDOW 123 0 0 Left 0
WINDOW 39 0 0 Left 0
SYMATTR Value PULSE(0 1.8 1n 100p 100p 12.5n 25n 5)
SYMATTR InstName V3
SYMBOL voltage 768 288 R0
WINDOW 123 0 0 Left 0
WINDOW 39 0 0 Left 0
SYMATTR InstName V4
SYMATTR Value PULSE(0 3.3 14n 100p 100p 100n 1 1)
SYMBOL Digital\\diffschmtbuf 720 96 R0
SYMATTR InstName A2
SYMATTR SpiceLine Vhigh=3.3 Vlow=0 Ref=0.5
SYMBOL Digital\\diffschmtbuf 1264 128 R0
SYMATTR InstName A3
SYMATTR SpiceLine Vhigh=3.3 Vlow=0 Ref=0.5
SYMBOL Comparators\\LTC6754 272 192 R0
SYMATTR InstName U2
TEXT -648 408 Left 2 !.tran 0 20n 0 1p
