Version 4
SHEET 1 1364 680
WIRE 96 0 -32 0
WIRE 416 0 160 0
WIRE -176 32 -176 0
WIRE -560 64 -576 64
WIRE -288 64 -480 64
WIRE 176 112 176 96
WIRE -288 144 -288 64
WIRE -176 144 -176 112
WIRE -176 144 -288 144
WIRE -32 144 -32 0
WIRE -32 144 -176 144
WIRE 64 144 -32 144
WIRE 144 144 64 144
WIRE 304 144 224 144
WIRE 544 144 304 144
WIRE 688 160 608 160
WIRE 752 160 688 160
WIRE 992 160 912 160
WIRE -576 176 -576 64
WIRE -576 176 -608 176
WIRE -560 176 -576 176
WIRE -448 176 -480 176
WIRE -400 176 -448 176
WIRE 64 176 -400 176
WIRE 144 176 64 176
WIRE 304 176 224 176
WIRE 416 176 416 0
WIRE 416 176 304 176
WIRE 544 176 416 176
WIRE 992 176 992 160
WIRE 1088 176 992 176
WIRE 1184 192 1152 192
WIRE -400 208 -400 176
WIRE -176 208 -176 144
WIRE 544 208 544 192
WIRE 688 208 592 208
WIRE 752 208 688 208
WIRE 992 208 928 208
WIRE 1088 208 992 208
WIRE 160 224 160 208
WIRE 176 224 176 208
WIRE 176 224 160 224
WIRE 192 224 192 208
WIRE 192 224 176 224
WIRE 160 240 160 224
WIRE 1088 240 1088 224
WIRE -576 272 -576 176
WIRE -560 272 -576 272
WIRE -448 272 -448 176
WIRE -448 272 -496 272
WIRE 752 272 752 256
WIRE -176 304 -176 288
WIRE 336 304 336 288
WIRE 480 304 480 288
WIRE 592 304 592 208
WIRE -160 368 -192 368
WIRE 336 400 336 384
WIRE 480 400 480 384
WIRE 592 400 592 384
WIRE -192 416 -192 368
WIRE -192 512 -192 496
WIRE -192 608 -192 592
FLAG 160 240 0
FLAG 336 400 0
FLAG 480 400 0
FLAG 336 288 3v3
FLAG 480 288 1v8
FLAG 176 96 3v3
FLAG -176 0 1v8
FLAG -176 304 0
FLAG -400 304 0
FLAG -608 176 Gate_STR1_i
FLAG 64 176 comp_p_in
FLAG 64 144 comp_n_in
FLAG 304 176 comp_n_out
FLAG 304 144 comp_p_out
FLAG 592 400 0
FLAG 688 208 CFD_OUT
FLAG -160 368 Gate_STR1_i
FLAG 992 160 Gate_STR1_P
FLAG 992 208 Gate_STR1_N
FLAG 544 208 0
FLAG 752 272 0
FLAG -192 608 0
FLAG 688 160 comp_out
FLAG 1088 240 0
FLAG 1184 192 GATE_STR1_o
SYMBOL Digital\\dflop 832 112 R0
SYMATTR InstName A1
SYMBOL cap 160 -16 R90
WINDOW 0 0 32 VBottom 2
WINDOW 3 32 32 VTop 2
SYMATTR InstName C1
SYMATTR Value 18p
SYMBOL res -192 16 R0
SYMATTR InstName R1
SYMATTR Value 510
SYMBOL res -192 192 R0
SYMATTR InstName R2
SYMATTR Value 510
SYMBOL voltage 336 288 R0
WINDOW 123 0 0 Left 0
WINDOW 39 0 0 Left 0
SYMATTR InstName V1
SYMATTR Value 3.3
SYMBOL voltage 480 288 R0
WINDOW 123 0 0 Left 0
WINDOW 39 0 0 Left 0
SYMATTR InstName V2
SYMATTR Value 1.8
SYMBOL res -416 192 R0
SYMATTR InstName R3
SYMATTR Value 510
SYMBOL res -464 48 R90
WINDOW 0 0 56 VBottom 2
WINDOW 3 32 56 VTop 2
SYMATTR InstName R4
SYMATTR Value 510
SYMBOL res -464 160 R90
WINDOW 0 0 56 VBottom 2
WINDOW 3 32 56 VTop 2
SYMATTR InstName R5
SYMATTR Value 510
SYMBOL cap -496 256 R90
WINDOW 0 0 32 VBottom 2
WINDOW 3 32 32 VTop 2
SYMATTR InstName C2
SYMATTR Value 2.7p
SYMBOL voltage -192 400 R0
WINDOW 3 38 58 Left 2
WINDOW 123 0 0 Left 0
WINDOW 39 0 0 Left 0
SYMATTR InstName V3
SYMATTR Value PULSE(0 1.8 1n 100p 100p 3n 1 1)
SYMBOL voltage 592 288 R0
WINDOW 123 0 0 Left 0
WINDOW 39 0 0 Left 0
SYMATTR InstName V4
SYMATTR Value PULSE(0 3.3 30n 1n 1n 10n 1 1)
SYMBOL Comparators\\LT1711 176 160 R0
WINDOW 0 16 -50 Left 2
SYMATTR InstName U1
SYMBOL Digital\\diffschmtbuf 544 96 R0
SYMATTR InstName A2
SYMATTR SpiceLine Vhigh=3.3 Vlow=0 Ref=1.0
SYMBOL voltage -192 496 R0
WINDOW 3 40 60 Left 2
WINDOW 123 0 0 Left 0
WINDOW 39 0 0 Left 0
SYMATTR InstName V5
SYMATTR Value PULSE(0 1.8 20n 100p 100p 10n 1 1)
SYMBOL Digital\\diffschmtbuf 1088 128 R0
SYMATTR InstName A3
SYMATTR SpiceLine Vhigh=3.3 Vlow=0 Ref=0.5
TEXT -646 408 Left 2 !.tran 0 35n 0 1p
